LTspice 24.0.12 for Windows
Circuit: This is a dc sweep analysis of the circuit given
Start Time: Thu Sep  5 21:46:55 2024
solver = Normal
Maximum thread count: 12
tnom = 27
temp = 27
method = modified trap
Total elapsed time: 0.089 seconds.

