LTspice 24.0.12 for Windows
Circuit: This is a transient analysis of the circuit given
Start Time: Thu Sep  5 21:34:37 2024
solver = Normal
Maximum thread count: 12
tnom = 27
temp = 27
method = modified trap
Direct Newton iteration for .op point succeeded.
Total elapsed time: 0.064 seconds.

