LTspice 24.0.12 for Windows
Circuit: This is a ac sweep analysis of the circuit given
Start Time: Thu Sep  5 21:38:49 2024
solver = Normal
Maximum thread count: 12
tnom = 27
temp = 27
method = modified trap
Direct Newton iteration for .op point succeeded.
Total elapsed time: 0.080 seconds.

