LTspice 24.0.12 for Windows
Circuit: *Amplifier simulation
Start Time: Thu Oct 10 09:28:51 2024
Fatal Error: Port(pin) count mismatch between the definition of subcircuit "amplifier" and instance: "xamp"
The instance has more connection terminals than the definition.
