LTspice 24.0.12 for Windows
Circuit: *Amplifier simulation
Start Time: Thu Sep 12 07:49:45 2024
solver = Normal
Maximum thread count: 12
tnom = 27
temp = 27
method = modified trap
Total elapsed time: 0.103 seconds.

