LTspice 24.0.12 for Windows
Circuit: *Amplifier simulation
Start Time: Thu Sep 12 08:08:57 2024
solver = Normal
Maximum thread count: 12
tnom = 27
temp = 27
method = modified trap
.OP point found by inspection.
Total elapsed time: 0.077 seconds.

